SEAWARD
SEAWARDS
SEAWATER
SEAWEED
SEAWEEDS
