SEA
SEAR
SEABORG
SEABORNE
SEABED
SEABIRD
SEABOARD
SEABED
SEABEDS
SEABIRD
SEABIRDS
SEABOARD
SEABOARDS
SEAFLOOR
SEAFLOOR
SEAFLOORS
SEAFARER
SEAFARING
SEAFARING
SEAFRONT
SEAFRONT
SEAFRONTS
SEAFARER
SEAFARERS
SEAFOOD
SEAFOOD
SEAHORSE
SEAHORSE
SEAHORSES
SEAGULL
SEAGULL
SEAGULLS
SEAGOING
SEAGRAM
SEAGRAM
SEACOAST
SEACOAST
SEACOASTS
SEAL
SEALER
SEALING
SEALANT
SEALANT
SEALANTS
SEALER
SEALERS
SEAL
SEALS
SEALSKIN
SEALSKIN
SEALED
SEAM
SEAMIER
SEAMY
SEAMLESS
SEAMLESSLY
SEAMAN
SEAMEN
SEAMING
SEAMAN
SEAMANSHIP
SEAMANSHIP
SEAM
SEAMS
SEAMIEST
SEAMSTRESS
SEAMSTRESS
SEAMSTRESSES
SEAMED
SEAN
SEAN
SEAPLANE
SEAPLANE
SEAPLANES
SEAPORT
SEAPORT
SEAPORTS
SEARING
SEARINGLY
SEARED
SEARS
SEAR
SEARS
SEARS
SEA
SEAS
SEASICK
SEASICKNESS
SEASICKNESS
SEASCAPE
SEASCAPE
SEASCAPES
SEASON
SEASONABLE
SEASONABLY
SEASONAL
SEASONALLY
SEASONALITY
SEASONING
SEASONING
SEASONINGS
SEASON
SEASONS
SEASONED
SEASIDE
SEASIDE
SEASIDES
SEAT
SEATO
SEATTLE
SEATTLE
SEATMATE
SEATMATE
SEATMATES
SEATING
SEATING
SEAT
SEATS
SEATED
SEAWAY
SEAWORTHY
SEAWORTHINESS
SEAWALL
SEAWALL
SEAWALLS
SEAWAY
SEAWAYS
SEAWARD
SEAWATER
SEAWEED
SEAWARD
SEAWARDS
SEAWATER
SEAWEED
SEAWEEDS
SEARCH
SEARCHER
SEASHELL
SEASHELL
SEASHELLS
SEARCHLIGHT
SEARCHLIGHT
SEARCHLIGHTS
SEARCHING
SEARCHINGLY
SEASHORE
SEASHORE
SEASHORES
SEARCHER
SEARCHERS
SEARCHES
SEARCH
SEARCHED
